Version 4
SHEET 1 880 680
WIRE -80 -48 -272 -48
WIRE -32 -48 -80 -48
WIRE 0 -48 -32 -48
WIRE 448 -48 0 -48
WIRE 448 -32 448 -48
WIRE 448 -32 416 -32
WIRE 496 -32 448 -32
WIRE -80 32 -80 -48
WIRE 496 32 496 -32
WIRE 112 80 80 80
WIRE 128 80 112 80
WIRE 416 80 416 -32
WIRE 416 80 336 80
WIRE 112 144 96 144
WIRE 416 144 336 144
WIRE 496 144 496 112
WIRE 496 144 416 144
WIRE -272 176 -272 -48
WIRE 496 176 496 144
WIRE -80 208 -80 112
WIRE -80 208 -96 208
WIRE 112 208 -80 208
WIRE 368 208 336 208
WIRE -32 272 -32 -48
WIRE 112 272 -32 272
WIRE 496 272 496 256
WIRE 528 272 496 272
WIRE 544 272 528 272
WIRE 368 304 368 208
WIRE 496 304 496 272
WIRE 496 304 368 304
WIRE 496 320 496 304
WIRE -272 336 -272 256
WIRE -64 336 -272 336
WIRE 80 336 80 80
WIRE 80 336 -64 336
WIRE 96 336 96 144
WIRE 368 336 368 304
WIRE 368 336 96 336
WIRE -64 384 -64 336
WIRE 496 448 496 384
FLAG -64 384 0
FLAG 496 448 0
FLAG 0 -48 Vcc
FLAG -96 208 Out
FLAG 528 272 Vc
FLAG 416 144 Discharge
SYMBOL NE555 224 176 R0
SYMATTR InstName U1
SYMBOL voltage -272 160 R0
WINDOW 123 0 0 Left 0
WINDOW 39 0 0 Left 0
SYMATTR InstName V1
SYMATTR Value 12
SYMBOL res 480 16 R0
SYMATTR InstName R1
SYMATTR Value 5k
SYMBOL res 480 160 R0
SYMATTR InstName R2
SYMATTR Value 3k
SYMBOL cap 480 320 R0
SYMATTR InstName C1
SYMATTR Value 0.15µ
SYMBOL res -96 16 R0
SYMATTR InstName R3
SYMATTR Value 10k
TEXT 16 -240 Left 2 !.tran 10m
