Version 4
SHEET 1 2136 1056
WIRE 1072 48 976 48
WIRE 1184 48 1072 48
WIRE 1328 48 1184 48
WIRE 1408 48 1328 48
WIRE 1584 48 1408 48
WIRE 1600 48 1584 48
WIRE 1616 48 1600 48
WIRE 2000 48 1616 48
WIRE 1328 64 1328 48
WIRE 2000 64 2000 48
WIRE 2000 64 1968 64
WIRE 2048 64 2000 64
WIRE 1072 112 1072 48
WIRE 1408 112 1408 48
WIRE 1584 128 1584 48
WIRE 2048 128 2048 64
WIRE 1328 160 1328 144
WIRE 1664 176 1632 176
WIRE 1968 176 1968 64
WIRE 1968 176 1888 176
WIRE 576 192 480 192
WIRE 736 192 576 192
WIRE 1664 240 1648 240
WIRE 1968 240 1888 240
WIRE 2048 240 2048 208
WIRE 2048 240 1968 240
WIRE 576 256 576 192
WIRE 1072 256 1072 192
WIRE 1072 256 992 256
WIRE 1328 256 1328 224
WIRE 1520 272 1376 272
WIRE 2048 272 2048 240
WIRE 736 288 736 192
WIRE 1520 304 1520 272
WIRE 1584 304 1584 208
WIRE 1584 304 1520 304
WIRE 1664 304 1584 304
WIRE 1920 304 1888 304
WIRE 688 352 672 352
WIRE 576 368 576 320
WIRE 1040 368 1024 368
WIRE 1616 368 1616 48
WIRE 1616 368 1120 368
WIRE 1664 368 1616 368
WIRE 1952 368 1888 368
WIRE 2048 368 2048 352
WIRE 2080 368 2048 368
WIRE 2096 368 2080 368
WIRE 1328 384 1328 352
WIRE 1920 400 1920 304
WIRE 2048 400 2048 368
WIRE 2048 400 1920 400
WIRE 2048 416 2048 400
WIRE 1408 432 1408 192
WIRE 1456 432 1408 432
WIRE 1632 432 1632 176
WIRE 1632 432 1456 432
WIRE 1648 432 1648 240
WIRE 1920 432 1920 400
WIRE 1920 432 1648 432
WIRE 1952 432 1952 368
WIRE 1120 448 1120 368
WIRE 1120 448 1072 448
WIRE 432 464 416 464
WIRE 480 464 480 192
WIRE 480 464 432 464
WIRE 1328 480 1328 464
WIRE 1456 480 1456 432
WIRE 1072 496 1072 448
WIRE 736 512 736 464
WIRE 768 512 736 512
WIRE 976 512 976 48
WIRE 976 512 960 512
WIRE 448 544 416 544
WIRE 480 544 448 544
WIRE 2048 544 2048 480
WIRE 992 576 992 256
WIRE 992 576 960 576
WIRE 1024 576 992 576
WIRE 1184 592 1184 48
WIRE 1184 592 1072 592
WIRE 768 608 736 608
WIRE 992 608 960 608
WIRE 736 656 736 608
WIRE 992 672 992 608
WIRE 576 736 576 688
WIRE 576 736 528 736
WIRE 688 736 576 736
WIRE 528 768 528 736
WIRE 576 768 576 736
WIRE 480 880 480 544
WIRE 528 880 528 832
WIRE 528 880 480 880
WIRE 576 880 576 848
WIRE 576 880 528 880
WIRE 672 880 672 352
WIRE 672 880 576 880
WIRE 736 880 736 752
WIRE 736 880 672 880
FLAG 2048 544 0
FLAG 1600 48 Vcc
FLAG 1520 304 Out
FLAG 2080 368 Vc
FLAG 1968 240 discharge
FLAG 1952 496 0
FLAG 1456 480 0
FLAG 1328 480 0
FLAG 1024 368 0
FLAG 992 672 0
FLAG 432 464 hv+
FLAG 448 544 hv-
SYMBOL NE555 1776 272 R0
SYMATTR InstName U2
SYMBOL voltage 1408 96 R0
WINDOW 123 0 0 Left 0
WINDOW 39 0 0 Left 0
WINDOW 3 24 96 Left 0
SYMATTR InstName V3
SYMATTR Value PULSE(12 0 3 1u 1u 10 10)
SYMBOL res 2032 112 R0
SYMATTR InstName R1
SYMATTR Value 5k
SYMBOL res 2032 256 R0
SYMATTR InstName R2
SYMATTR Value 2.2k
SYMBOL cap 2032 416 R0
SYMATTR InstName C2
SYMATTR Value 100µF
SYMBOL res 1568 112 R0
SYMATTR InstName R3
SYMATTR Value 10k
SYMBOL LED 1312 160 R0
SYMATTR InstName D1
SYMBOL Cap 1936 432 R0
SYMATTR InstName C1
SYMATTR Value 0.1µF
SYMBOL pmos 1376 352 R180
SYMATTR InstName M1
SYMATTR Value RRS050P03
SYMBOL Res 1344 160 R180
WINDOW 0 36 76 Left 2
WINDOW 3 36 40 Left 2
SYMATTR InstName R4
SYMATTR Value 1k
SYMBOL Res 1136 352 R90
WINDOW 0 0 56 VBottom 2
WINDOW 3 32 56 VTop 2
SYMATTR InstName R5
SYMATTR Value 10k
SYMBOL pmos 1024 496 R0
SYMATTR InstName M2
SYMATTR Value AO3423
SYMBOL Optos/4N25 864 576 R0
SYMATTR InstName U1
SYMBOL Res 1056 96 R0
SYMATTR InstName R6
SYMATTR Value 10k
SYMBOL Res 720 368 R0
SYMATTR InstName R7
SYMATTR Value 5.6k
SYMBOL njf 688 288 R0
SYMATTR InstName J1
SYMATTR Value J308
SYMBOL nmos 688 656 R0
SYMATTR InstName M3
SYMBOL Res 560 752 R0
SYMATTR InstName R8
SYMATTR Value 2m
SYMBOL Res 560 592 R0
SYMATTR InstName R9
SYMATTR Value 240k
SYMBOL Res 560 512 R0
SYMATTR InstName R10
SYMATTR Value 240k
SYMBOL Res 560 432 R0
SYMATTR InstName R11
SYMATTR Value 240k
SYMBOL Res 560 352 R0
SYMATTR InstName R12
SYMATTR Value 240k
SYMBOL zener 592 320 R180
WINDOW 0 24 64 Left 2
WINDOW 3 24 0 Left 2
SYMATTR InstName D2
SYMBOL zener 544 832 R180
WINDOW 0 24 64 Left 2
WINDOW 3 24 0 Left 2
SYMATTR InstName D3
SYMBOL res 1312 368 R0
SYMATTR InstName R13
SYMATTR Value 100
TEXT 800 64 Left 2 !.tran 10s
