Version 4
SHEET 1 1040 680
WIRE 864 48 864 0
WIRE 912 48 864 48
WIRE 1008 48 976 48
WIRE 1008 64 1008 48
WIRE 864 112 864 48
WIRE 960 112 864 112
WIRE 592 128 528 128
WIRE 864 128 864 112
WIRE 864 128 816 128
WIRE 592 192 496 192
WIRE 960 192 816 192
WIRE 880 256 816 256
WIRE 848 320 816 320
WIRE 880 336 880 256
WIRE 960 336 960 272
WIRE 960 336 880 336
WIRE 960 368 960 336
WIRE 496 400 496 192
WIRE 880 400 880 336
WIRE 880 400 496 400
WIRE 848 432 848 320
WIRE 848 448 848 432
FLAG 1008 64 0
FLAG 464 128 0
FLAG 960 432 0
FLAG 848 496 0
SYMBOL Misc/NE555 704 224 R0
SYMATTR InstName U1
SYMBOL voltage 864 -96 R0
SYMATTR InstName V1
SYMATTR Value 12
SYMBOL cap 976 32 R90
WINDOW 0 0 32 VBottom 2
WINDOW 3 32 32 VTop 2
SYMATTR InstName C1
SYMATTR Value 1µF
SYMBOL Cap 528 112 R90
WINDOW 0 0 32 VBottom 2
WINDOW 3 32 32 VTop 2
SYMATTR InstName C2
SYMBOL res 944 176 R0
SYMATTR InstName RB
SYMATTR Value 3k
SYMBOL Cap 944 368 R0
SYMATTR InstName C3
SYMATTR Value 100µF
SYMBOL Res 944 96 R0
SYMATTR InstName RA
SYMATTR Value 100
SYMBOL Cap 832 432 R0
SYMATTR InstName C4
SYMATTR Value 0.1µF
SYMBOL nmos 512 -80 R0
SYMATTR InstName M1
