Version 4
SHEET 1 2136 1056
WIRE 1360 48 1280 48
WIRE 1440 48 1360 48
WIRE 1536 48 1440 48
WIRE 1552 48 1536 48
WIRE 1616 48 1552 48
WIRE 2000 48 1616 48
WIRE 1360 64 1360 48
WIRE 2000 64 2000 48
WIRE 2000 64 1968 64
WIRE 2048 64 2000 64
WIRE 1440 112 1440 48
WIRE 1536 128 1536 48
WIRE 2048 128 2048 64
WIRE 1360 160 1360 144
WIRE 1664 176 1632 176
WIRE 1968 176 1968 64
WIRE 1968 176 1888 176
WIRE 1504 240 1408 240
WIRE 1664 240 1648 240
WIRE 1968 240 1888 240
WIRE 2048 240 2048 208
WIRE 2048 240 1968 240
WIRE 2048 272 2048 240
WIRE 1504 304 1504 240
WIRE 1536 304 1536 208
WIRE 1536 304 1504 304
WIRE 1664 304 1536 304
WIRE 1920 304 1888 304
WIRE 1056 368 1040 368
WIRE 1168 368 1136 368
WIRE 1616 368 1616 48
WIRE 1616 368 1168 368
WIRE 1664 368 1616 368
WIRE 1952 368 1888 368
WIRE 2048 368 2048 352
WIRE 2080 368 2048 368
WIRE 2096 368 2080 368
WIRE 1920 400 1920 304
WIRE 2048 400 2048 368
WIRE 2048 400 1920 400
WIRE 2048 416 2048 400
WIRE 1360 432 1360 320
WIRE 1440 432 1440 192
WIRE 1488 432 1440 432
WIRE 1632 432 1632 176
WIRE 1632 432 1488 432
WIRE 1648 432 1648 240
WIRE 1920 432 1920 400
WIRE 1920 432 1648 432
WIRE 1952 432 1952 368
WIRE 1488 480 1488 432
WIRE 1168 496 1168 368
WIRE 2048 544 2048 480
WIRE 1120 576 992 576
WIRE 1280 592 1280 48
WIRE 1280 592 1168 592
FLAG 2048 544 0
FLAG 1552 48 Vcc
FLAG 1504 304 Out
FLAG 2080 368 Vc
FLAG 1968 240 discharge
FLAG 1952 496 0
FLAG 1488 480 0
FLAG 1360 432 0
FLAG 1040 368 0
SYMBOL NE555 1776 272 R0
SYMATTR InstName U2
SYMBOL voltage 1440 96 R0
WINDOW 123 0 0 Left 0
WINDOW 39 0 0 Left 0
SYMATTR InstName V3
SYMATTR Value 12
SYMBOL res 2032 112 R0
SYMATTR InstName R1
SYMATTR Value 5k
SYMBOL res 2032 256 R0
SYMATTR InstName R2
SYMATTR Value 2.2k
SYMBOL cap 2032 416 R0
SYMATTR InstName C2
SYMATTR Value 100µF
SYMBOL res 1520 112 R0
SYMATTR InstName R3
SYMATTR Value 10k
SYMBOL LED 1344 160 R0
SYMATTR InstName D1
SYMBOL Cap 1936 432 R0
SYMATTR InstName C1
SYMATTR Value 0.1µF
SYMBOL pmos 1408 320 R180
SYMATTR InstName M1
SYMATTR Value RRS050P03
SYMBOL Res 1376 160 R180
WINDOW 0 36 76 Left 2
WINDOW 3 36 40 Left 2
SYMATTR InstName R4
SYMATTR Value 1k
SYMBOL Res 1152 352 R90
WINDOW 0 0 56 VBottom 2
WINDOW 3 32 56 VTop 2
SYMATTR InstName R5
SYMATTR Value 10k
SYMBOL pmos 1120 496 R0
SYMATTR InstName M2
SYMATTR Value AO3423
TEXT 1568 -144 Left 2 !.tran 3s
